<?xml version="1.0" encoding="UTF-8"?>
<configuration>
    <input>
        <net-file value="simple.net.xml"/>
        <route-files value="probabilistic.rou.xml"/>
    </input>
    <time>
        <begin value="0"/>
        <end value="3600"/>
        <step-length value="1.0"/>
    </time>
 <gui-settings-file value="view_settings.xml"/>
</configuration>
