<?xml version="1.0" encoding="UTF-8"?>
<nodes>
    <node id="center" x="0.0"   y="0.0"   type="traffic_light"/>

    <node id="n_in"  x="0.0"   y="200.0" type="priority"/>
    <node id="s_in"  x="0.0"   y="-200.0" type="priority"/>
    <node id="e_in"  x="200.0" y="0.0"   type="priority"/>
    <node id="w_in"  x="-200.0" y="0.0"  type="priority"/>

    <node id="n_out" x="0.0"   y="400.0" type="priority"/>
    <node id="s_out" x="0.0"   y="-400.0" type="priority"/>
    <node id="e_out" x="400.0" y="0.0"   type="priority"/>
    <node id="w_out" x="-400.0" y="0.0"  type="priority"/>
</nodes>
