<?xml version="1.0" encoding="UTF-8"?>

<!-- generated on 2025-12-08 11:38:34 by Eclipse SUMO netconvert Version 1.18.0
<configuration xmlns:xsi="http://www.w3.org/2001/XMLSchema-instance" xsi:noNamespaceSchemaLocation="http://sumo.dlr.de/xsd/netconvertConfiguration.xsd">

    <input>
        <node-files value="simple.nod.xml"/>
        <edge-files value="simple.edg.xml"/>
    </input>

    <output>
        <output-file value="simple.net.xml"/>
    </output>

    <tls_building>
        <tls.guess value="1"/>
        <tls.join value="1"/>
    </tls_building>

</configuration>
-->

<net version="1.16" junctionCornerDetail="5" limitTurnSpeed="5.50" xmlns:xsi="http://www.w3.org/2001/XMLSchema-instance" xsi:noNamespaceSchemaLocation="http://sumo.dlr.de/xsd/net_file.xsd">

    <location netOffset="400.00,400.00" convBoundary="0.00,0.00,800.00,800.00" origBoundary="-400.00,-400.00,400.00,400.00" projParameter="!"/>

    <edge id=":center_0" function="internal">
        <lane id=":center_0_0" index="0" speed="8.10" length="14.57" shape="392.00,413.60 391.65,408.35 390.60,404.60 388.85,402.35 386.40,401.60"/>
    </edge>
    <edge id=":center_1" function="internal">
        <lane id=":center_1_0" index="0" speed="13.89" length="27.42" shape="395.20,413.60 395.70,404.28 396.80,396.74 397.90,390.83 398.40,386.40"/>
    </edge>
    <edge id=":center_2" function="internal">
        <lane id=":center_2_0" index="0" speed="10.36" length="8.26" shape="398.40,413.60 399.35,406.95 400.15,405.62"/>
    </edge>
    <edge id=":center_3" function="internal">
        <lane id=":center_3_0" index="0" speed="3.65" length="1.44" shape="398.40,413.60 399.20,412.40"/>
    </edge>
    <edge id=":center_16" function="internal">
        <lane id=":center_16_0" index="0" speed="10.36" length="16.25" shape="400.15,405.62 402.20,402.20 406.95,399.35 413.60,398.40"/>
    </edge>
    <edge id=":center_17" function="internal">
        <lane id=":center_17_0" index="0" speed="3.65" length="3.23" shape="399.20,412.40 400.00,412.00 400.80,412.40 401.60,413.60"/>
    </edge>
    <edge id=":center_4" function="internal">
        <lane id=":center_4_0" index="0" speed="8.10" length="14.57" shape="413.60,408.00 408.35,408.35 404.60,409.40 402.35,411.15 401.60,413.60"/>
    </edge>
    <edge id=":center_5" function="internal">
        <lane id=":center_5_0" index="0" speed="13.89" length="27.42" shape="413.60,404.80 404.28,404.30 396.74,403.20 390.83,402.10 386.40,401.60"/>
    </edge>
    <edge id=":center_6" function="internal">
        <lane id=":center_6_0" index="0" speed="10.36" length="8.26" shape="413.60,401.60 406.95,400.65 405.62,399.85"/>
    </edge>
    <edge id=":center_7" function="internal">
        <lane id=":center_7_0" index="0" speed="3.65" length="1.44" shape="413.60,401.60 412.40,400.80"/>
    </edge>
    <edge id=":center_18" function="internal">
        <lane id=":center_18_0" index="0" speed="10.36" length="16.25" shape="405.62,399.85 402.20,397.80 399.35,393.05 398.40,386.40"/>
    </edge>
    <edge id=":center_19" function="internal">
        <lane id=":center_19_0" index="0" speed="3.65" length="3.23" shape="412.40,400.80 412.00,400.00 412.40,399.20 413.60,398.40"/>
    </edge>
    <edge id=":center_8" function="internal">
        <lane id=":center_8_0" index="0" speed="8.10" length="14.57" shape="408.00,386.40 408.35,391.65 409.40,395.40 411.15,397.65 413.60,398.40"/>
    </edge>
    <edge id=":center_9" function="internal">
        <lane id=":center_9_0" index="0" speed="13.89" length="27.42" shape="404.80,386.40 404.30,395.72 403.20,403.26 402.10,409.17 401.60,413.60"/>
    </edge>
    <edge id=":center_10" function="internal">
        <lane id=":center_10_0" index="0" speed="10.36" length="8.26" shape="401.60,386.40 400.65,393.05 399.85,394.38"/>
    </edge>
    <edge id=":center_11" function="internal">
        <lane id=":center_11_0" index="0" speed="3.65" length="1.44" shape="401.60,386.40 400.80,387.60"/>
    </edge>
    <edge id=":center_20" function="internal">
        <lane id=":center_20_0" index="0" speed="10.36" length="16.25" shape="399.85,394.38 397.80,397.80 393.05,400.65 386.40,401.60"/>
    </edge>
    <edge id=":center_21" function="internal">
        <lane id=":center_21_0" index="0" speed="3.65" length="3.23" shape="400.80,387.60 400.00,388.00 399.20,387.60 398.40,386.40"/>
    </edge>
    <edge id=":center_12" function="internal">
        <lane id=":center_12_0" index="0" speed="8.10" length="14.57" shape="386.40,392.00 391.65,391.65 395.40,390.60 397.65,388.85 398.40,386.40"/>
    </edge>
    <edge id=":center_13" function="internal">
        <lane id=":center_13_0" index="0" speed="13.89" length="27.42" shape="386.40,395.20 395.72,395.70 403.26,396.80 409.17,397.90 413.60,398.40"/>
    </edge>
    <edge id=":center_14" function="internal">
        <lane id=":center_14_0" index="0" speed="10.36" length="8.26" shape="386.40,398.40 393.05,399.35 394.38,400.15"/>
    </edge>
    <edge id=":center_15" function="internal">
        <lane id=":center_15_0" index="0" speed="3.65" length="1.44" shape="386.40,398.40 387.60,399.20"/>
    </edge>
    <edge id=":center_22" function="internal">
        <lane id=":center_22_0" index="0" speed="10.36" length="16.25" shape="394.38,400.15 397.80,402.20 400.65,406.95 401.60,413.60"/>
    </edge>
    <edge id=":center_23" function="internal">
        <lane id=":center_23_0" index="0" speed="3.65" length="3.23" shape="387.60,399.20 388.00,400.00 387.60,400.80 386.40,401.60"/>
    </edge>

    <edge id="east_in" from="e_in" to="center" priority="1">
        <lane id="east_in_0" index="0" speed="13.89" length="186.40" shape="600.00,408.00 413.60,408.00"/>
        <lane id="east_in_1" index="1" speed="13.89" length="186.40" shape="600.00,404.80 413.60,404.80"/>
        <lane id="east_in_2" index="2" speed="13.89" length="186.40" shape="600.00,401.60 413.60,401.60"/>
    </edge>
    <edge id="east_out" from="center" to="e_out" priority="1">
        <lane id="east_out_0" index="0" speed="13.89" length="386.40" shape="413.60,398.40 800.00,398.40"/>
    </edge>
    <edge id="north_in" from="n_in" to="center" priority="1">
        <lane id="north_in_0" index="0" speed="13.89" length="186.40" shape="392.00,600.00 392.00,413.60"/>
        <lane id="north_in_1" index="1" speed="13.89" length="186.40" shape="395.20,600.00 395.20,413.60"/>
        <lane id="north_in_2" index="2" speed="13.89" length="186.40" shape="398.40,600.00 398.40,413.60"/>
    </edge>
    <edge id="north_out" from="center" to="n_out" priority="1">
        <lane id="north_out_0" index="0" speed="13.89" length="386.40" shape="401.60,413.60 401.60,800.00"/>
    </edge>
    <edge id="south_in" from="s_in" to="center" priority="1">
        <lane id="south_in_0" index="0" speed="13.89" length="186.40" shape="408.00,200.00 408.00,386.40"/>
        <lane id="south_in_1" index="1" speed="13.89" length="186.40" shape="404.80,200.00 404.80,386.40"/>
        <lane id="south_in_2" index="2" speed="13.89" length="186.40" shape="401.60,200.00 401.60,386.40"/>
    </edge>
    <edge id="south_out" from="center" to="s_out" priority="1">
        <lane id="south_out_0" index="0" speed="13.89" length="386.40" shape="398.40,386.40 398.40,0.00"/>
    </edge>
    <edge id="west_in" from="w_in" to="center" priority="1">
        <lane id="west_in_0" index="0" speed="13.89" length="186.40" shape="200.00,392.00 386.40,392.00"/>
        <lane id="west_in_1" index="1" speed="13.89" length="186.40" shape="200.00,395.20 386.40,395.20"/>
        <lane id="west_in_2" index="2" speed="13.89" length="186.40" shape="200.00,398.40 386.40,398.40"/>
    </edge>
    <edge id="west_out" from="center" to="w_out" priority="1">
        <lane id="west_out_0" index="0" speed="13.89" length="386.40" shape="386.40,401.60 0.00,401.60"/>
    </edge>

    <tlLogic id="center" type="static" programID="0" offset="0">
        <phase duration="33" state="GGggrrrrGGggrrrr"/>
        <phase duration="3"  state="yyggrrrryyggrrrr"/>
        <phase duration="6"  state="rrGGrrrrrrGGrrrr"/>
        <phase duration="3"  state="rryyrrrrrryyrrrr"/>
        <phase duration="33" state="rrrrGGggrrrrGGgg"/>
        <phase duration="3"  state="rrrryyggrrrryygg"/>
        <phase duration="6"  state="rrrrrrGGrrrrrrGG"/>
        <phase duration="3"  state="rrrrrryyrrrrrryy"/>
    </tlLogic>

    <junction id="center" type="traffic_light" x="400.00" y="400.00" incLanes="north_in_0 north_in_1 north_in_2 east_in_0 east_in_1 east_in_2 south_in_0 south_in_1 south_in_2 west_in_0 west_in_1 west_in_2" intLanes=":center_0_0 :center_1_0 :center_16_0 :center_17_0 :center_4_0 :center_5_0 :center_18_0 :center_19_0 :center_8_0 :center_9_0 :center_20_0 :center_21_0 :center_12_0 :center_13_0 :center_22_0 :center_23_0" shape="390.40,413.60 403.20,413.60 404.36,411.38 405.80,410.60 407.82,410.04 410.42,409.71 413.60,409.60 413.60,396.80 411.38,395.64 410.60,394.20 410.04,392.18 409.71,389.58 409.60,386.40 396.80,386.40 395.64,388.62 394.20,389.40 392.18,389.96 389.58,390.29 386.40,390.40 386.40,403.20 388.62,404.36 389.40,405.80 389.96,407.82 390.29,410.42">
        <request index="0"  response="0000000000000000" foes="1000010000100000" cont="0"/>
        <request index="1"  response="0100000001000000" foes="0111110001100000" cont="0"/>
        <request index="2"  response="0100001101000000" foes="0110001111100000" cont="1"/>
        <request index="3"  response="0100001000010000" foes="0100001000010000" cont="1"/>
        <request index="4"  response="0000001000000000" foes="0100001000001000" cont="0"/>
        <request index="5"  response="0000011000000111" foes="1100011000000111" cont="0"/>
        <request index="6"  response="0011011000000110" foes="0011111000000110" cont="1"/>
        <request index="7"  response="0010000100000100" foes="0010000100000100" cont="1"/>
        <request index="8"  response="0000000000000000" foes="0010000010000100" cont="0"/>
        <request index="9"  response="0100000001000000" foes="0110000001111100" cont="0"/>
        <request index="10" response="0100000001000011" foes="1110000001100011" cont="1"/>
        <request index="11" response="0001000001000010" foes="0001000001000010" cont="1"/>
        <request index="12" response="0000000000000010" foes="0000100001000010" cont="0"/>
        <request index="13" response="0000011100000110" foes="0000011111000110" cont="0"/>
        <request index="14" response="0000011000110110" foes="0000011000111110" cont="1"/>
        <request index="15" response="0000010000100001" foes="0000010000100001" cont="1"/>
    </junction>
    <junction id="e_in" type="dead_end" x="600.00" y="400.00" incLanes="" intLanes="" shape="600.00,400.00 600.00,409.60"/>
    <junction id="e_out" type="dead_end" x="800.00" y="400.00" incLanes="east_out_0" intLanes="" shape="800.00,396.80 800.00,400.00"/>
    <junction id="n_in" type="dead_end" x="400.00" y="600.00" incLanes="" intLanes="" shape="400.00,600.00 390.40,600.00"/>
    <junction id="n_out" type="dead_end" x="400.00" y="800.00" incLanes="north_out_0" intLanes="" shape="403.20,800.00 400.00,800.00"/>
    <junction id="s_in" type="dead_end" x="400.00" y="200.00" incLanes="" intLanes="" shape="400.00,200.00 409.60,200.00"/>
    <junction id="s_out" type="dead_end" x="400.00" y="0.00" incLanes="south_out_0" intLanes="" shape="396.80,0.00 400.00,0.00"/>
    <junction id="w_in" type="dead_end" x="200.00" y="400.00" incLanes="" intLanes="" shape="200.00,400.00 200.00,390.40"/>
    <junction id="w_out" type="dead_end" x="0.00" y="400.00" incLanes="west_out_0" intLanes="" shape="0.00,403.20 0.00,400.00"/>

    <junction id=":center_16_0" type="internal" x="400.15" y="405.62" incLanes=":center_2_0 south_in_0 south_in_1" intLanes=":center_5_0 :center_6_0 :center_7_0 :center_8_0 :center_9_0 :center_13_0 :center_14_0"/>
    <junction id=":center_17_0" type="internal" x="399.20" y="412.40" incLanes=":center_3_0 east_in_0 south_in_1 west_in_2" intLanes=":center_4_0 :center_9_0 :center_14_0"/>
    <junction id=":center_18_0" type="internal" x="405.62" y="399.85" incLanes=":center_6_0 west_in_0 west_in_1" intLanes=":center_1_0 :center_2_0 :center_9_0 :center_10_0 :center_11_0 :center_12_0 :center_13_0"/>
    <junction id=":center_19_0" type="internal" x="412.40" y="400.80" incLanes=":center_7_0 north_in_2 south_in_0 west_in_1" intLanes=":center_2_0 :center_8_0 :center_13_0"/>
    <junction id=":center_20_0" type="internal" x="399.85" y="394.38" incLanes=":center_10_0 north_in_0 north_in_1" intLanes=":center_0_0 :center_1_0 :center_5_0 :center_6_0 :center_13_0 :center_14_0 :center_15_0"/>
    <junction id=":center_21_0" type="internal" x="400.80" y="387.60" incLanes=":center_11_0 east_in_2 north_in_1 west_in_0" intLanes=":center_1_0 :center_6_0 :center_12_0"/>
    <junction id=":center_22_0" type="internal" x="394.38" y="400.15" incLanes=":center_14_0 east_in_0 east_in_1" intLanes=":center_1_0 :center_2_0 :center_3_0 :center_4_0 :center_5_0 :center_9_0 :center_10_0"/>
    <junction id=":center_23_0" type="internal" x="387.60" y="399.20" incLanes=":center_15_0 east_in_1 north_in_0 south_in_2" intLanes=":center_0_0 :center_5_0 :center_10_0"/>

    <connection from="east_in" to="north_out" fromLane="0" toLane="0" via=":center_4_0" tl="center" linkIndex="4" dir="r" state="o"/>
    <connection from="east_in" to="west_out" fromLane="1" toLane="0" via=":center_5_0" tl="center" linkIndex="5" dir="s" state="o"/>
    <connection from="east_in" to="south_out" fromLane="2" toLane="0" via=":center_6_0" tl="center" linkIndex="6" dir="l" state="o"/>
    <connection from="east_in" to="east_out" fromLane="2" toLane="0" via=":center_7_0" tl="center" linkIndex="7" dir="t" state="o"/>
    <connection from="north_in" to="west_out" fromLane="0" toLane="0" via=":center_0_0" tl="center" linkIndex="0" dir="r" state="O"/>
    <connection from="north_in" to="south_out" fromLane="1" toLane="0" via=":center_1_0" tl="center" linkIndex="1" dir="s" state="O"/>
    <connection from="north_in" to="east_out" fromLane="2" toLane="0" via=":center_2_0" tl="center" linkIndex="2" dir="l" state="o"/>
    <connection from="north_in" to="north_out" fromLane="2" toLane="0" via=":center_3_0" tl="center" linkIndex="3" dir="t" state="o"/>
    <connection from="south_in" to="east_out" fromLane="0" toLane="0" via=":center_8_0" tl="center" linkIndex="8" dir="r" state="O"/>
    <connection from="south_in" to="north_out" fromLane="1" toLane="0" via=":center_9_0" tl="center" linkIndex="9" dir="s" state="O"/>
    <connection from="south_in" to="west_out" fromLane="2" toLane="0" via=":center_10_0" tl="center" linkIndex="10" dir="l" state="o"/>
    <connection from="south_in" to="south_out" fromLane="2" toLane="0" via=":center_11_0" tl="center" linkIndex="11" dir="t" state="o"/>
    <connection from="west_in" to="south_out" fromLane="0" toLane="0" via=":center_12_0" tl="center" linkIndex="12" dir="r" state="o"/>
    <connection from="west_in" to="east_out" fromLane="1" toLane="0" via=":center_13_0" tl="center" linkIndex="13" dir="s" state="o"/>
    <connection from="west_in" to="north_out" fromLane="2" toLane="0" via=":center_14_0" tl="center" linkIndex="14" dir="l" state="o"/>
    <connection from="west_in" to="west_out" fromLane="2" toLane="0" via=":center_15_0" tl="center" linkIndex="15" dir="t" state="o"/>

    <connection from=":center_0" to="west_out" fromLane="0" toLane="0" dir="r" state="M"/>
    <connection from=":center_1" to="south_out" fromLane="0" toLane="0" dir="s" state="M"/>
    <connection from=":center_2" to="east_out" fromLane="0" toLane="0" via=":center_16_0" dir="l" state="m"/>
    <connection from=":center_16" to="east_out" fromLane="0" toLane="0" dir="l" state="M"/>
    <connection from=":center_3" to="north_out" fromLane="0" toLane="0" via=":center_17_0" dir="t" state="m"/>
    <connection from=":center_17" to="north_out" fromLane="0" toLane="0" dir="t" state="M"/>
    <connection from=":center_4" to="north_out" fromLane="0" toLane="0" dir="r" state="M"/>
    <connection from=":center_5" to="west_out" fromLane="0" toLane="0" dir="s" state="M"/>
    <connection from=":center_6" to="south_out" fromLane="0" toLane="0" via=":center_18_0" dir="l" state="m"/>
    <connection from=":center_18" to="south_out" fromLane="0" toLane="0" dir="l" state="M"/>
    <connection from=":center_7" to="east_out" fromLane="0" toLane="0" via=":center_19_0" dir="t" state="m"/>
    <connection from=":center_19" to="east_out" fromLane="0" toLane="0" dir="t" state="M"/>
    <connection from=":center_8" to="east_out" fromLane="0" toLane="0" dir="r" state="M"/>
    <connection from=":center_9" to="north_out" fromLane="0" toLane="0" dir="s" state="M"/>
    <connection from=":center_10" to="west_out" fromLane="0" toLane="0" via=":center_20_0" dir="l" state="m"/>
    <connection from=":center_20" to="west_out" fromLane="0" toLane="0" dir="l" state="M"/>
    <connection from=":center_11" to="south_out" fromLane="0" toLane="0" via=":center_21_0" dir="t" state="m"/>
    <connection from=":center_21" to="south_out" fromLane="0" toLane="0" dir="t" state="M"/>
    <connection from=":center_12" to="south_out" fromLane="0" toLane="0" dir="r" state="M"/>
    <connection from=":center_13" to="east_out" fromLane="0" toLane="0" dir="s" state="M"/>
    <connection from=":center_14" to="north_out" fromLane="0" toLane="0" via=":center_22_0" dir="l" state="m"/>
    <connection from=":center_22" to="north_out" fromLane="0" toLane="0" dir="l" state="M"/>
    <connection from=":center_15" to="west_out" fromLane="0" toLane="0" via=":center_23_0" dir="t" state="m"/>
    <connection from=":center_23" to="west_out" fromLane="0" toLane="0" dir="t" state="M"/>

</net>
